Version 4
SHEET 1 3092 880
WIRE -1776 -384 -1776 -432
WIRE -1776 -256 -1776 -304
WIRE -1712 -256 -1776 -256
WIRE 352 -256 320 -256
WIRE 496 -256 432 -256
WIRE 592 -256 496 -256
WIRE -1776 -208 -1776 -256
WIRE 496 -208 496 -256
WIRE -1936 -160 -1968 -160
WIRE -1840 -160 -1856 -160
WIRE 496 -112 496 -144
WIRE -656 -64 -720 -64
WIRE -480 -64 -560 -64
WIRE -336 -64 -400 -64
WIRE -208 -64 -208 -144
WIRE -208 -64 -272 -64
WIRE -96 -64 -208 -64
WIRE 112 -64 0 -64
WIRE -1776 -48 -1776 -112
WIRE -208 -16 -208 -64
WIRE -1104 32 -1104 -48
WIRE -976 32 -1104 32
WIRE -576 32 -576 -16
WIRE -16 32 -16 -16
WIRE -1104 80 -1104 32
WIRE -576 144 -576 112
WIRE -16 144 -16 112
WIRE -208 160 -208 64
WIRE 112 160 112 -64
WIRE -976 176 -976 32
WIRE 496 176 496 128
WIRE -1104 224 -1104 160
WIRE -1104 224 -1216 224
WIRE -1040 224 -1104 224
WIRE 1136 224 1136 128
WIRE 1104 240 848 240
WIRE -1216 256 -1216 224
WIRE 1264 256 1168 256
WIRE 1296 256 1264 256
WIRE 1104 272 1040 272
WIRE -1104 320 -1104 224
WIRE 496 320 496 256
WIRE 496 320 384 320
WIRE 624 320 496 320
WIRE 912 320 848 320
WIRE 1040 320 1040 272
WIRE 1040 320 992 320
WIRE 1104 320 1040 320
WIRE 1264 320 1264 256
WIRE 1264 320 1184 320
WIRE -976 336 -976 272
WIRE -912 336 -976 336
WIRE 384 352 384 320
WIRE -1328 368 -1360 368
WIRE -1216 368 -1216 336
WIRE -1216 368 -1264 368
WIRE -1168 368 -1216 368
WIRE 1040 368 1040 320
WIRE -2480 384 -2480 304
WIRE -2320 384 -2320 304
WIRE -2160 384 -2160 304
WIRE -2000 384 -2000 304
WIRE -1840 384 -1840 304
WIRE -1696 384 -1696 304
WIRE -976 416 -976 336
WIRE 496 416 496 320
WIRE 272 464 208 464
WIRE 384 464 384 432
WIRE 384 464 336 464
WIRE 432 464 384 464
WIRE 1040 496 1040 448
WIRE 1136 496 1136 288
WIRE -2480 528 -2480 464
WIRE -2320 528 -2320 464
WIRE -2160 528 -2160 464
WIRE -2000 528 -2000 464
WIRE -1840 528 -1840 464
WIRE -1696 528 -1696 464
WIRE -1104 560 -1104 416
WIRE -976 560 -976 496
WIRE -976 560 -1104 560
WIRE 496 576 496 512
WIRE 880 576 832 576
WIRE 992 576 960 576
WIRE -1104 624 -1104 560
WIRE 1040 656 1040 592
WIRE 496 720 496 656
FLAG -2480 528 0
FLAG -2480 304 Supply
FLAG -1840 528 0
FLAG -1840 304 Cmd
FLAG -1968 -160 Cmd
FLAG -1776 -432 Supply
FLAG -1776 -48 0
FLAG -1712 -256 CmdInv
FLAG -1696 304 Signal
FLAG -1696 528 0
FLAG -2320 528 0
FLAG -2320 304 PulseReader
FLAG -2160 528 0
FLAG -2160 304 PulseTag
FLAG -2000 528 0
FLAG -2000 304 Pulse
FLAG -1104 624 0
FLAG -1104 -48 Supply
FLAG -576 144 CmdInv
FLAG 112 160 0
FLAG -16 144 Cmd
FLAG -1360 368 Signal
FLAG -912 336 Amp1
FLAG -720 -64 Amp1
FLAG 496 -112 0
FLAG 320 -256 Amp2
FLAG 592 -256 Avr
FLAG 624 320 Amp2
FLAG 1136 496 0
FLAG 1136 128 Supply
FLAG 1296 256 Comp
FLAG 848 240 Avr
FLAG 848 320 Amp2
FLAG 832 576 Cmd
FLAG 1040 656 0
FLAG -208 160 0
FLAG 496 128 Supply
FLAG 496 720 0
FLAG -208 -144 Bandpass
FLAG 208 464 Bandpass
SYMBOL voltage -2480 368 R0
WINDOW 123 0 0 Left 0
WINDOW 39 0 0 Left 0
SYMATTR InstName V1
SYMATTR Value 5
SYMBOL voltage -1840 368 R0
WINDOW 3 24 96 Invisible 2
WINDOW 123 0 0 Left 0
WINDOW 39 70 -90 VRight 2
SYMATTR Value PULSE(0 5 {Pad-150n} 100n 100n {NReader*PReader-PReader/2+100n})
SYMATTR InstName V3
SYMBOL npn -1840 -208 R0
SYMATTR InstName Q2
SYMATTR Value BC547B
SYMBOL res -1840 -176 R90
WINDOW 0 0 56 VBottom 2
WINDOW 3 32 56 VTop 2
SYMATTR InstName R5
SYMATTR Value 1k
SYMBOL res -1760 -288 R180
WINDOW 0 36 76 Left 2
WINDOW 3 36 40 Left 2
SYMATTR InstName R7
SYMATTR Value 1k
SYMBOL bv -1696 368 R0
WINDOW 3 84 -226 VRight 2
SYMATTR Value V=V(Pulse)+0.005*white(10e6*time)
SYMATTR InstName B1
SYMBOL voltage -2320 368 R0
WINDOW 3 89 -171 Invisible 2
WINDOW 123 0 0 Left 0
WINDOW 39 0 0 Left 0
SYMATTR Value PULSE(500m 5m {Pad} 10n 10n {PReader/2} {PReader} {NReader})
SYMATTR InstName V4
SYMBOL voltage -2160 368 R0
WINDOW 3 89 -171 Invisible 2
WINDOW 123 0 0 Left 0
WINDOW 39 0 0 Left 0
SYMATTR Value PULSE(0 5m {Pad+NReader*PReader-PReader/2+Sep} 10n 10n {(1/FTag)/2} {1/FTag} {NTag})
SYMATTR InstName V5
SYMBOL bv -2000 368 R0
WINDOW 3 81 -166 Invisible 2
SYMATTR Value V=V(PulseReader)+V(PulseTag)
SYMATTR InstName B2
SYMBOL Opamps/LT1211 1136 192 R0
SYMATTR InstName U1
SYMBOL cap -1328 384 R270
WINDOW 0 32 32 VTop 2
WINDOW 3 0 32 VBottom 2
SYMATTR InstName C1
SYMATTR Value 1µ
SYMBOL npn -1168 320 R0
SYMATTR InstName Q1
SYMATTR Value BC547B
SYMBOL res -1232 240 R0
SYMATTR InstName R1
SYMATTR Value 470k
SYMBOL res -1120 64 R0
SYMATTR InstName R2
SYMATTR Value 2.2k
SYMBOL nmos -656 -16 R270
SYMATTR InstName M1
SYMATTR Value 2N7002
SYMBOL nmos -96 -16 R270
SYMATTR InstName M2
SYMATTR Value 2N7002
SYMBOL res -32 16 R0
SYMATTR InstName R3
SYMATTR Value 47k
SYMBOL res 448 -272 R90
WINDOW 0 0 56 VBottom 2
WINDOW 3 32 56 VTop 2
SYMATTR InstName R6
SYMATTR Value 47k
SYMBOL cap 480 -208 R0
SYMATTR InstName C3
SYMATTR Value 1n
SYMBOL res 1008 304 R90
WINDOW 0 0 56 VBottom 2
WINDOW 3 32 56 VTop 2
SYMATTR InstName R8
SYMATTR Value 47k
SYMBOL res 1200 304 R90
WINDOW 0 85 49 VBottom 2
WINDOW 3 32 56 VTop 2
SYMATTR InstName R9
SYMATTR Value 470k
SYMBOL nmos 992 496 R0
SYMATTR InstName M3
SYMATTR Value 2N7002
SYMBOL res 1056 464 R180
WINDOW 0 36 76 Left 2
WINDOW 3 36 40 Left 2
SYMATTR InstName R11
SYMATTR Value 10k
SYMBOL res -592 16 R0
SYMATTR InstName R12
SYMATTR Value 1k
SYMBOL ind -496 -48 R270
WINDOW 0 32 56 VTop 2
WINDOW 3 5 56 VBottom 2
SYMATTR InstName L1
SYMATTR Value 220µ
SYMBOL cap -336 -48 R270
WINDOW 0 32 32 VTop 2
WINDOW 3 0 32 VBottom 2
SYMATTR InstName C4
SYMATTR Value 10n
SYMBOL res -224 -32 R0
SYMATTR InstName R13
SYMATTR Value 100
SYMBOL res 976 560 R90
WINDOW 0 0 56 VBottom 2
WINDOW 3 32 56 VTop 2
SYMATTR InstName R14
SYMATTR Value 10k
SYMBOL cap 272 480 R270
WINDOW 0 32 32 VTop 2
WINDOW 3 0 32 VBottom 2
SYMATTR InstName C5
SYMATTR Value 1µ
SYMBOL npn 432 416 R0
SYMATTR InstName Q3
SYMATTR Value BC547B
SYMBOL res 368 336 R0
SYMATTR InstName R16
SYMATTR Value 470k
SYMBOL res 480 160 R0
SYMATTR InstName R17
SYMATTR Value 2.2k
SYMBOL res 480 560 R0
SYMATTR InstName R18
SYMATTR Value 330
SYMBOL npn -1040 176 R0
SYMATTR InstName Q4
SYMATTR Value BC547B
SYMBOL res -992 400 R0
SYMATTR InstName R19
SYMATTR Value 330
TEXT -2480 96 Left 2 !.tran {Pad+NReader*PReader+Sep+NTag/FTag+Pad}
TEXT -2480 48 Left 2 !.param Pad=15u Sep=15u PReader=10u FTag=120k NReader=5 NTag=10
