Version 4
SHEET 1 3092 880
WIRE -432 -624 -432 -656
WIRE -432 -624 -544 -624
WIRE -432 -592 -432 -624
WIRE -544 -560 -544 -624
WIRE -544 -448 -544 -496
WIRE -432 -448 -432 -512
WIRE -432 -448 -544 -448
WIRE -304 -448 -432 -448
WIRE -48 -448 -96 -448
WIRE 64 -448 32 -448
WIRE 128 -448 64 -448
WIRE -544 -400 -544 -448
WIRE 64 -384 64 -448
WIRE -432 -320 -432 -448
WIRE -864 -272 -928 -272
WIRE -672 -272 -768 -272
WIRE -544 -272 -544 -320
WIRE -544 -272 -608 -272
WIRE -496 -272 -544 -272
WIRE 64 -256 64 -320
WIRE 352 -192 352 -256
WIRE 480 -192 352 -192
WIRE -816 -176 -816 -208
WIRE 480 -160 480 -192
WIRE -432 -144 -432 -224
WIRE 352 -80 352 -192
WIRE -816 -64 -816 -96
WIRE 320 -48 256 -48
WIRE 480 -32 480 -80
WIRE 480 -32 400 -32
WIRE 544 -32 480 -32
WIRE 320 -16 256 -16
WIRE -2400 16 -2400 -64
WIRE -2240 16 -2240 -64
WIRE -2080 16 -2080 -64
WIRE -1920 16 -1920 -64
WIRE -1760 16 -1760 -64
WIRE -1616 16 -1616 -64
WIRE 336 48 336 16
WIRE 352 48 352 16
WIRE 352 48 336 48
WIRE 112 80 48 80
WIRE 256 80 256 -16
WIRE 256 80 192 80
WIRE 320 80 256 80
WIRE 480 80 480 -32
WIRE 480 80 400 80
WIRE -2400 160 -2400 96
WIRE -2240 160 -2240 96
WIRE -2080 160 -2080 96
WIRE -1920 160 -1920 96
WIRE -1760 160 -1760 96
WIRE -1616 160 -1616 96
WIRE 352 224 352 48
FLAG -2400 160 0
FLAG -2400 -64 Supply
FLAG -1760 160 0
FLAG -1760 -64 CmdInv
FLAG -1616 -64 Signal
FLAG -1616 160 0
FLAG -2240 160 0
FLAG -2240 -64 PulseReader
FLAG -2080 160 0
FLAG -2080 -64 PulseTag
FLAG -1920 160 0
FLAG -1920 -64 Pulse
FLAG -928 -272 Signal
FLAG -816 -64 CmdInv
FLAG 352 -256 Supply
FLAG 256 -48 Avr
FLAG 48 80 Amp
FLAG 352 224 0
FLAG 544 -32 Comp
FLAG -432 -144 0
FLAG -432 -656 Supply
FLAG -304 -448 Amp
FLAG -96 -448 Amp
FLAG 128 -448 Avr
FLAG 64 -256 0
SYMBOL voltage -2400 0 R0
WINDOW 123 0 0 Left 0
WINDOW 39 0 0 Left 0
SYMATTR InstName V1
SYMATTR Value 5
SYMBOL voltage -1760 0 R0
WINDOW 3 24 96 Invisible 2
WINDOW 123 0 0 Left 0
WINDOW 39 70 -90 VRight 2
SYMATTR Value PULSE(5 0 {Pad-150n} 100n 100n {NReader*PReader-PReader/2+100n})
SYMATTR InstName V3
SYMBOL bv -1616 0 R0
WINDOW 3 84 -226 VRight 2
SYMATTR Value V=V(Pulse)+0.005*white(10e6*time)
SYMATTR InstName B1
SYMBOL voltage -2240 0 R0
WINDOW 3 89 -171 Invisible 2
WINDOW 123 0 0 Left 0
WINDOW 39 0 0 Left 0
SYMATTR Value PULSE(1 5m {Pad} 10n 10n {PReader/2} {PReader} {NReader})
SYMATTR InstName V4
SYMBOL voltage -2080 0 R0
WINDOW 3 89 -171 Invisible 2
WINDOW 123 0 0 Left 0
WINDOW 39 0 0 Left 0
SYMATTR Value PULSE(0 5m {Pad+NReader*PReader-PReader/2+Sep} 10n 10n {(1/FTag)/2} {1/FTag} {NTag})
SYMATTR InstName V5
SYMBOL bv -1920 0 R0
WINDOW 3 81 -166 Invisible 2
SYMATTR Value V=V(PulseReader)+V(PulseTag)
SYMATTR InstName B2
SYMBOL res -416 -496 R180
WINDOW 0 36 76 Left 0
WINDOW 3 36 40 Left 0
SYMATTR InstName R1
SYMATTR Value 2.7k
SYMBOL cap -608 -288 R90
WINDOW 0 0 32 VBottom 2
WINDOW 3 32 32 VTop 2
SYMATTR InstName C2
SYMATTR Value 3.3n
SYMBOL res -800 -192 M0
SYMATTR InstName R5
SYMATTR Value 1k
SYMBOL npn -768 -208 M270
SYMATTR InstName Q1
SYMATTR Value BC847C
SYMBOL RH111 352 -32 R0
SYMATTR InstName U1
SYMBOL res 208 64 R90
WINDOW 0 0 56 VBottom 2
WINDOW 3 32 56 VTop 2
SYMATTR InstName R2
SYMATTR Value 10k
SYMBOL res 416 64 R90
WINDOW 0 85 49 VBottom 2
WINDOW 3 32 56 VTop 2
SYMATTR InstName R3
SYMATTR Value 220k
SYMBOL res 464 -176 R0
SYMATTR InstName R4
SYMATTR Value 1k
SYMBOL npn -496 -320 R0
SYMATTR InstName Q2
SYMATTR Value BC847C
SYMBOL res -528 -304 R180
WINDOW 0 36 76 Left 0
WINDOW 3 36 40 Left 0
SYMATTR InstName R6
SYMATTR Value 220k
SYMBOL res -64 -432 R270
WINDOW 0 32 56 VTop 2
WINDOW 3 0 56 VBottom 2
SYMATTR InstName R7
SYMATTR Value 220k
SYMBOL cap 80 -320 R180
WINDOW 0 24 56 Left 2
WINDOW 3 24 8 Left 2
SYMATTR InstName C3
SYMATTR Value 100p
SYMBOL cap -528 -496 R180
WINDOW 0 24 56 Left 2
WINDOW 3 24 8 Left 2
SYMATTR InstName C1
SYMATTR Value 1n
TEXT -2400 -272 Left 2 !.tran {Pad+NReader*PReader+Sep+NTag/FTag+Pad}
TEXT -2400 -320 Left 2 !.param Pad=100u Sep=30u PReader=20u FTag=50k NReader=5 NTag=10
TEXT -2400 -224 Left 2 !.include models/TL972.lib
